167
Frame 31: Geometry 32, Energy: -47.48601 Hartree
B -15.89709971695933 -5.004826941980505 0.8037263226513823
B -15.89391186963048 5.162933306693128 0.7993171228680784
O -14.68726143916038 5.839816071119453 0.8000267777666578
B -13.48092891502735 5.162438134537838 0.80101256723365
O -13.50209876754088 3.779593908797086 0.799700703741445
B -14.68794700272876 3.069500089480383 0.7979465719834274
O -15.87349916828133 3.780089836404279 0.7981159735739483
C -14.68832054121991 1.506056585569284 0.7971711067453097
C -13.49543605667799 0.7721465108246918 0.7984237304738383
C -13.49584855252544 -0.6155579541021416 0.7994591903970532
C -14.68915752314451 -1.348735934122584 0.7991542786245742
C -15.88206600499251 -0.6148460176310383 0.7972905041265911
C -15.88166613507966 0.7728487590327379 0.7963724887881873
B -14.68979111024829 -2.912325662392092 0.8018482356672161
B -8.221845658161209 8.006639340715745 0.8209461968215591
O -15.87584758199378 -3.621898140003807 0.8018871309842973
C -9.607723222017693 7.28458788954863 0.8143496067964622
C -9.684571196286347 5.886125573266829 0.8148244341109102
C -10.90387865808509 5.225378207555868 0.809675512363497
C -12.11677114858822 5.925269294465174 0.8046358910002648
C -12.04088774253383 7.323802257546102 0.804148921179983
C -10.82036622714504 7.98514699800923 0.8084539795632695
H -12.97131061695349 7.903075141220278 0.8002535146384627
H -8.75332107541832 5.308205460088449 0.8192701340257044
H -10.92886634799869 4.129509625508833 0.8100388796003374
H -12.54380236806417 -1.15881789427081 0.8008098384548918
H -12.54305021745482 1.314808469340183 0.7990709623439224
H -16.83440939252268 -1.157574295736732 0.7969371097394105
H -16.83373186402365 1.316068815439391 0.7953604456218923
B -6.89097942010905 10.02860981420037 0.8240884500759837
O -8.117396856561863 9.384763041553002 0.81908871428272
H -10.79786731541071 9.081193404587378 0.807861607625724
C -12.04827955398049 -7.169189914307786 0.8098891581158815
C -12.12151537616841 -5.770533033285988 0.8100474493908143
C -10.90750258355626 -5.072656177980505 0.8149376043142617
C -9.689495902471897 -5.735571611117659 0.820165301832925
C -9.615289743565196 -7.134174704333314 0.8198671429043479
C -10.82898637669759 -7.832706452863894 0.8141959039949882
B -8.229755220118726 -7.856830048051305 0.8263778378772555
O -7.065804686884839 -7.112549600666709 0.8357386313569709
B -5.818699734768322 -7.706755062610106 0.842027140898971
O -5.753779288257917 -9.092814567590308 0.8356486145064269
B -6.897307792528992 -9.877063963312349 0.8279668413335884
O -8.124841013538612 -9.235193011168189 0.8234316264411207
C -6.849160027934083 -11.44966982610004 0.8248648504752614
C -5.657759591407443 -12.18917425199692 0.8312795170720357
C -5.655931198185297 -13.58043992525752 0.8305483738625418
C -6.845476378017375 -14.32301304529231 0.8230928045415836
C -8.035999753216659 -13.58218132699618 0.8156646692104297
C -8.037761503676188 -12.19350420369587 0.8165430412132991
B -13.48433071696732 -5.006001649758646 0.8061549266314347
O -14.69102513774554 -5.682339322550913 0.8049644923494741
B -0.932062528174716 -4.224239791389458 0.887369939036987
C -2.240702835820439 -5.088358929289447 0.8787534099790926
C -2.128482987561052 -6.487156920589206 0.8640545491245656
C -3.241727243087505 -7.315696127214856 0.8532696413879881
C -4.541345935422066 -6.795685586307504 0.8551686287995208
C -4.654788158953682 -5.397248895810379 0.8704383770466569
C -3.540432735305076 -4.566739387233048 0.8827511723710764
H -5.656939789059944 -4.953117193403532 0.8725911177096545
H -1.125993482483348 -6.930227911184685 0.8604868236009835
H -3.105087638274607 -8.403192912224993 0.8418496413616749
H -4.69879541384853 -14.11476415106089 0.8364986944687209
H -4.702107709447646 -11.65220772635951 0.8377624605997418
H -8.989402743299525 -14.12300989820356 0.80970349955822
H -8.992574697575879 -11.65512231652596 0.8111931919502147
H -8.757013869885835 -5.159647129117769 0.8245570040912135
H -10.80842069200332 -8.928793146482654 0.8138300208055879
H -12.97981405934982 -7.746688792778274 0.8061874388431186
C -4.64718181986568 5.550226570778102 0.8696106592400156
C -4.531935234848675 6.948272713684806 0.8559615906419143
C -3.23141651505624 7.46629435539988 0.8589887036103862
C -2.11899051857145 6.636424614968098 0.8729410866688445
C -2.233095630233648 5.237539816756112 0.8860951328158542
C -3.534046179730684 4.718511167564572 0.8849745968143929
B -0.9282810391485726 4.370403452096242 0.8978074381675647
O 0.2827985422023488 5.028081655565328 0.8867320738773091
B 1.494410770713712 4.371513203414783 0.882714091173455
O 1.469156668830658 2.976738636987193 0.8961778343639528
B 0.2847517646588179 2.270565038036203 0.9138555554047125
O -0.9007777780965144 2.975880319108966 0.9144532073603977
O 1.451138175201784 -2.835590965436206 0.8960540052779913
B 8.783846704536813 8.01144356246829 0.8128833830653556
O 7.618568697949826 7.268210600694641 0.8182446104206836
H 11.48470483029116 -3.973002691533508 0.8071101011681883
H 13.53325633974652 7.903485517223649 0.802493225448054
H 4.224457690433866 -3.478281128369348 0.8667216112894698
B 0.2748120686377385 -2.098780972655587 0.9097485728259097
O -13.50440102760394 -3.622995417085678 0.8042022279046165
B -5.810653463927349 7.859457244505085 0.83899202275758
O -7.056633879386378 7.263184270126581 0.831042234457204
B 6.372801918387453 7.864246729115925 0.8261021713748078
O -0.9020286492860488 -2.833607672457853 0.8990631360335571
C 5.094779419639437 6.952502674799121 0.8384355421988979
C 5.211545059723411 5.554557493550489 0.8446667802329947
C 4.09930466896011 4.721784167085217 0.8583419228449437
C 2.798057238223323 5.239813927474964 0.8663373318885278
C 2.68237194080763 6.638585837708459 0.8590958971013479
C 3.793916883072098 7.469526304780949 0.8456060641090622
H -3.678764319410913 -3.478888384787511 0.8950401910712793
H 1.679151123050196 7.079927511518256 0.8646783943680756
H 6.214686382246826 5.112786478730753 0.8391958257804806
H 4.241811936366505 3.634958685204884 0.8637578030981483
H 11.48702976426513 4.131960856418014 0.7994030569163024
H 9.312583329286877 5.312992565938421 0.8050789198682452
O 8.679404412647809 9.389664696353007 0.8137533597521304
H 11.36104794174278 9.083848837440971 0.8076889553408663
H -1.116245252638855 7.078872382615774 0.8727816689935688
H -10.93059849790777 -3.9767503592638 0.815230677282953
H -3.675710039296241 3.631599602579387 0.8947496061783934
H -5.649841770696109 5.107323985425541 0.8676298928769212
B 7.452978807238685 10.03332142907726 0.8186652692438499
O -5.746304381214444 9.244912881338538 0.8333039435097547
O 6.308265046722743 9.249700215035521 0.8238258377727847
H 3.654668073473695 8.556700719422654 0.8414298530015268
H -3.093079074192015 8.553548447722665 0.8489337485553283
C 2.67773314435859 -6.488627854400746 0.8545820209974384
C 2.788446302291782 -5.089703714561288 0.8641849622656557
C 4.087492783028532 -4.56640384818112 0.8589697262353438
C 5.202823150704904 -5.395560733082638 0.8454463371958842
C 5.091019671623338 -6.794190353606271 0.8369765077701767
C 3.791999310806165 -7.31581133188722 0.8414797980143942
B 6.3695500058965 -7.703669229390138 0.825249079908846
O 7.616030384136051 -7.108317586517624 0.8180893986948367
B 8.780773808331887 -7.851394070083302 0.8130585677761407
O 8.677239067561162 -9.229844347413049 0.8136533127227183
B 7.450529810145198 -9.872807123454246 0.8183425028876244
O 6.306136186354287 -9.089902528947517 0.8230371859261105
C 7.404840435071298 -11.44540701777288 0.8177672061533195
C 8.594784449271325 -12.18701623268112 0.8127438972114405
C 8.595499818074787 -13.57569386274231 0.8130138107319037
C 7.406249310155672 -14.31844399283231 0.8181438152483372
C 6.215358644580554 -13.5780377898962 0.8229845085522213
C 6.214689863281937 -12.18679828876355 0.8227482080613235
B 1.479704056168754 -4.225634029806713 0.8796030169971629
O 0.2733537818510068 -4.891892841652641 0.8812058943174739
C 12.67365296796818 -5.767981080903695 0.8043862353101005
C 12.59912415183227 -7.166542513030958 0.8037802236680769
C 11.37916243800057 -7.828747899411896 0.8058825249299055
C 10.16621109864036 -7.128928654289113 0.8085096632367936
C 10.24173786294063 -5.73045599648919 0.8086632477709881
C 11.46042670160013 -5.068884122102582 0.8068049537028461
H 9.309834294366812 -5.153543493416519 0.8109278743455482
H 13.53008872639652 -7.744964075877995 0.8019907166889613
H 11.35724107585387 -8.9248061655525 0.8054384476520364
H 9.549827631666567 -14.11470330619423 0.8088228277279438
H 9.548491315859701 -11.64688822443904 0.8082979360209805
H 5.259251520205323 -14.11415155369454 0.8267936071820916
H 5.258125547491363 -11.65148030603694 0.8266476531652575
H 6.204414686947017 -4.950207109786937 0.84214448908161
H 3.656617190245019 -8.403512019167639 0.8355997555027027
H 1.675798121984974 -6.932993529274133 0.8581131054345041
C 10.24451856878639 5.88984658042103 0.804184413262356
C 10.16913981175997 7.288443314493678 0.8068823977448752
C 11.3824094230989 7.987780421453974 0.8058372303123683
C 12.60223533459353 7.325154873889854 0.8027254634787707
C 12.67668747961599 5.926607942010922 0.8006846692589458
C 11.46312849535936 5.227849448163002 0.8012679476339882
O 0.2054043129679849 0.9810752273394154 -1.839621469343547
O -2.562569255408368 -0.449688982793298 1.131643936117855
C 0.2342052970185024 0.6078712146285254 -0.7488058211848254
O 0.366270450261335 1.062695513950374 3.689514352479575
C 0.3371284189680209 0.6634565861607112 2.607111711463869
Fe 0.2826343069886626 0.1190355517119796 0.9394174133171986
O 3.131012255184734 -0.4756698063558353 0.9204336173707923
C 2.006142946537966 -0.244481492397089 0.9187318704367397
C -1.438563554301558 -0.2326390832787903 1.04052283424938
VEC1 29.93423998417354 0.0 0.0
VEC2 0.0 25.92379998495415 0.0
