14
Frame 2:  Geometry 3, Bond Energy: -4.17169 Hartree
C -2.263705859812081e-05 -3.921150415922579e-12 1.395645920383792
C -0.07138163740889703 -6.3621671182235e-12 -1.389004534817759
C -1.199777017417959 8.508002362480435e-12 0.7046249639831509
C 1.178386775101103 -1.775591275683795e-11 0.6710247415190422
C 1.143223370883506 -1.897684171902845e-11 -0.7167536771649903
C -1.258465918558662 7.551715030186582e-12 -0.6786532730784466
H -3.315923819217741e-05 -2.66896697648218e-12 2.47577459870747
H 2.126913066453735 -2.761176908134211e-11 1.192015267334377
H 2.069038743329534 -2.983723142608404e-11 -1.278400828453451
H -0.09526971678052727 -7.352900555936336e-12 -2.470935745642314
H -2.216413796685229 1.753694951067465e-11 -1.177660620888964
O -3.492835256849649 3.395192312153884e-11 0.8404512041809662
N -2.447207413767189 2.314135668682741e-11 1.461570530316278
O -2.379020562002975 2.379699333810719e-11 2.675839323620847
