14
Frame 5:  Geometry 6, Bond Energy: -3.91585 Hartree
C 0.02634029860305033 0.01333952376637963 1.400363041000567
C -0.007179795914865202 0.003695754403152189 -1.366780505059519
C -1.200675544470799 0.02430850740349631 0.7327145531802173
C 1.213571140582467 -0.002846302211014449 0.6887502779630856
C 1.210145018970043 -0.009075305794025133 -0.6999738431791451
C -1.200347727946879 0.02026786842181964 -0.6639563291676205
H 0.04213979092772481 0.0143046014982061 2.484749658854796
H 2.154076317371675 -0.01022252146178363 1.227243584417852
H 2.140831970609693 -0.02214127491820938 -1.253006173003512
H -0.03098428653418753 0.001589910424158031 -2.450357164993831
H -2.1444735163831 0.02714582127993931 -1.197491168849887
N -2.392347143568891 -0.01829167646439736 1.441577822704841
H -3.191489324549873 0.3441981367288407 0.9461003712141831
H -2.340527487696055 0.3483186369234381 2.378951944917973
