16
Frame 0: Geometry 7, Distance C(2)--C(3): 1.534 ?, Energy: -14.03079 Hartree
C -3.714381121068463 -3.738428007845722 0.06191708562407566
C -2.297210830261314 -4.237235160485326 0.01613328919745784
C -1.315727550121698 -3.158454264118183 -0.4604827824120236
C -1.607750850560581 -1.814429453265663 0.2033295748434478
C -3.027177891770457 -1.338447568762527 -0.1082354959928179
C -4.040391465206594 -2.442676708741126 0.01112508668175982
H -4.499101871623137 -4.490735455886419 0.1548338441024373
H -2.233618948250879 -5.119326304544 -0.6355244925375934
H -2.005106550544122 -4.593312503470758 1.016507386933993
H -1.392787574247514 -3.050966902328875 -1.549226091175113
H -0.2852278142674579 -3.47078380492264 -0.2515878863725248
H -0.8792509692552173 -1.062450946344288 -0.1241688893496399
H -1.48490472379741 -1.911585074266231 1.28895936852972
H -3.067428539816512 -0.9187874866398499 -1.125787060165129
H -3.30195925862549 -0.5086797027734498 0.5573689982636304
H -5.090134208366709 -2.147052753139369 0.04232396680703478
